Circuit: * C:\Users\ENG-ADM09\Documents\github\sistemas-de-controle-II\Lab 01\LTspice\Circuito RLC\Circuito RLC.asc


Date: Thu Mar 04 21:34:17 2021
Total elapsed time: 0.091 seconds.

tnom = 27
temp = 27
method = trap
totiter = 0
traniter = 0
tranpoints = 0
accept = 0
rejected = 0
matrix size = 4
fillins = 0
solver = Normal

