Circuit: * C:\Users\ENG-ADM09\Documents\github\sistemas-de-controle-II\Lab 01\LTspice\Circuito RLC\Circuito RLC.asc

.OP point found by inspection.

Date: Tue Mar 02 23:03:04 2021
Total elapsed time: 0.113 seconds.

tnom = 27
temp = 27
method = modified trap
totiter = 2100
traniter = 2100
tranpoints = 1051
accept = 1050
rejected = 1
matrix size = 4
fillins = 0
solver = Normal
Matrix Compiler1: 100 bytes object code size  0.1/0.1/[0.0]
Matrix Compiler2: 248 bytes object code size  0.1/0.1/[0.1]

