Circuit: * C:\Users\ENG-ADM09\Documents\github\sistemas-de-controle-II\Lab 01\LTspice\Circuito RLC\Circuito RLC.asc


Date: Wed Mar 03 00:52:08 2021
Total elapsed time: 0.042 seconds.

tnom = 27
temp = 27
method = trap
totiter = 0
traniter = 0
tranpoints = 0
accept = 0
rejected = 0
matrix size = 4
fillins = 0
solver = Normal

