Circuit: * C:\Users\ENG-ADM09\Documents\github\sistemas-de-controle-II\Lab 01\LTspice\Circuito RLC\Draft1.asc

.OP point found by inspection.

Date: Mon Mar 01 23:04:01 2021
Total elapsed time: 0.072 seconds.

tnom = 27
temp = 27
method = modified trap
totiter = 2130
traniter = 2130
tranpoints = 1066
accept = 1065
rejected = 1
matrix size = 4
fillins = 0
solver = Normal
Matrix Compiler1:       8 opcodes  0.1/[0.0]/0.0
Matrix Compiler2: 236 bytes object code size  0.0/0.1/[0.0]

