Circuit: * C:\Users\ENG-ADM09\Documents\github\sistemas-de-controle-II\Lab 01\LTspice\Circuito RLC\Draft1.asc

Error on line 6 : s1 n003 n002 n001 0 myswitch
	 Unable to find definition of model "myswitch"
Direct Newton iteration for .op point succeeded.

Date: Thu May 12 20:26:52 2022
Total elapsed time: 2.661 seconds.

tnom = 27
temp = 27
method = modified trap
totiter = 5906
traniter = 5902
tranpoints = 2952
accept = 2950
rejected = 2
matrix size = 4
fillins = 0
solver = Alternate
Matrix Compiler1: 102 bytes object code size  0.1/0.1/[0.0]
Matrix Compiler2: 216 bytes object code size  0.1/0.1/[0.0]

