Circuit: * C:\Users\ENG-ADM09\Documents\github\sistemas-de-controle-II\Lab 01\LTspice\Circuito RC\Circuito RC.asc

.OP point found by inspection.

Date: Tue Mar 02 21:29:42 2021
Total elapsed time: 0.127 seconds.

tnom = 27
temp = 27
method = modified trap
totiter = 2082
traniter = 2082
tranpoints = 1042
accept = 1042
rejected = 0
matrix size = 3
fillins = 0
solver = Normal
Matrix Compiler1: 50 bytes object code size  0.1/0.0/[0.0]
Matrix Compiler2: 175 bytes object code size  0.1/0.1/[0.0]

